%Mem=7000MW
%NProcShared=24
%Chk=1_D10A_a1.5.chk
#p test
rCAM-B3LYP/6-31G*
GFInp
opt(MaxCycle=150,NoRaman)
freq(NoRaman)
popul(Full)
scf(MaxCycle=150)

1_D10A_a1.5

0,1
C         -2.75000       -3.70096        0.00000
C         -1.25000       -3.70096        0.00000
C         -0.50000       -2.40192        0.00000
C         -1.25000       -1.10289        0.00000
C         -2.75000       -1.10289        0.00000
C         -3.50000       -2.40192        0.00000
C         -0.50000        0.19615        0.00000
C         -1.25000        1.49519        0.00000
C         -2.75000        1.49519        0.00000
C         -3.50000        0.19615        0.00000
C         -0.50000        2.79423        0.00000
C         -1.25000        4.09327        0.00000
C         -2.75000        4.09327        0.00000
C         -3.50000        2.79423        0.00000
C          1.75000       -3.70096        0.00000
C          3.25000       -3.70096        0.00000
C          4.00000       -2.40192        0.00000
C          3.25000       -1.10289        0.00000
C          1.75000       -1.10289        0.00000
C          1.00000       -2.40192        0.00000
C          1.00000        0.19615        0.00000
C          4.00000        0.19615        0.00000
C          3.25000        1.49519        0.00000
C          1.75000        1.49519        0.00000
C          1.00000        2.79423        0.00000
H         -3.05985       -4.23764        0.87596
H         -3.05985       -4.23764       -0.87596
H         -0.94015       -4.23764        0.87596
H         -0.94015       -4.23764       -0.87596
H         -4.11970       -2.40192        0.87596
H         -4.11970       -2.40192       -0.87596
H         -4.11970        0.19615        0.87596
H         -4.11970        0.19615       -0.87596
H         -0.94015        4.62994        0.87596
H         -0.94015        4.62994       -0.87596
H         -3.05985        4.62994        0.87596
H         -3.05985        4.62994       -0.87596
H         -4.11970        2.79423        0.87596
H         -4.11970        2.79423       -0.87596
H          1.44015       -4.23764        0.87596
H          1.44015       -4.23764       -0.87596
H          3.55985       -4.23764        0.87596
H          3.55985       -4.23764       -0.87596
H          4.61970       -2.40192        0.87596
H          4.61970       -2.40192       -0.87596
H          4.61970        0.19615        0.87596
H          4.61970        0.19615       -0.87596
H          3.55985        2.03187        0.87596
H          3.55985        2.03187       -0.87596
H          1.30985        3.33091        0.87596
H          1.30985        3.33091       -0.87596

