%Mem=7000MW
%NProcShared=24
%Chk=3_D20A_a1.5.chk
#p test
rCAM-B3LYP/6-31G*
GFInp
opt(MaxCycle=150,NoRaman)
freq(NoRaman)
popul(Full)
scf(MaxCycle=150)

3_D20A_a1.5

0,1
C         -7.75000       -6.10289        0.00000
C         -6.25000       -6.10289        0.00000
C         -5.50000       -4.80385        0.00000
C         -6.25000       -3.50481        0.00000
C         -7.75000       -3.50481        0.00000
C         -8.50000       -4.80385        0.00000
C         -5.50000       -2.20577        0.00000
C         -6.25000       -0.90673        0.00000
C         -7.75000       -0.90673        0.00000
C         -8.50000       -2.20577        0.00000
C         -5.50000        0.39230        0.00000
C         -6.25000        1.69134        0.00000
C         -7.75000        1.69134        0.00000
C         -8.50000        0.39230        0.00000
C         -5.50000        2.99038        0.00000
C         -6.25000        4.28942        0.00000
C         -7.75000        4.28942        0.00000
C         -8.50000        2.99038        0.00000
C         -3.25000       -8.70096        0.00000
C         -1.75000       -8.70096        0.00000
C         -1.00000       -7.40192        0.00000
C         -1.75000       -6.10289        0.00000
C         -3.25000       -6.10289        0.00000
C         -4.00000       -7.40192        0.00000
C         -5.50000       -7.40192        0.00000
C         -4.00000       -4.80385        0.00000
C         -1.00000       -4.80385        0.00000
C         -1.75000       -3.50481        0.00000
C         -3.25000       -3.50481        0.00000
C         -4.00000       -2.20577        0.00000
C         -1.00000       -2.20577        0.00000
C         -1.75000       -0.90673        0.00000
C         -3.25000       -0.90673        0.00000
C         -4.00000        0.39230        0.00000
C         -1.00000        0.39230        0.00000
C         -1.75000        1.69134        0.00000
C         -3.25000        1.69134        0.00000
C         -4.00000        2.99038        0.00000
C         -1.00000        2.99038        0.00000
C         -1.75000        4.28942        0.00000
C         -3.25000        4.28942        0.00000
C         -4.00000        5.58846        0.00000
C         -5.50000        5.58846        0.00000
C         -1.00000        5.58846        0.00000
C         -1.75000        6.88750        0.00000
C         -3.25000        6.88750        0.00000
C         -4.00000        8.18653        0.00000
C         -5.50000        8.18653        0.00000
C         -6.25000        6.88750        0.00000
C          1.25000       -8.70096        0.00000
C          2.75000       -8.70096        0.00000
C          3.50000       -7.40192        0.00000
C          2.75000       -6.10289        0.00000
C          1.25000       -6.10289        0.00000
C          0.50000       -7.40192        0.00000
C          0.50000       -4.80385        0.00000
C          3.50000       -4.80385        0.00000
C          2.75000       -3.50481        0.00000
C          1.25000       -3.50481        0.00000
C          0.50000       -2.20577        0.00000
C          3.50000       -2.20577        0.00000
C          2.75000       -0.90673        0.00000
C          1.25000       -0.90673        0.00000
C          0.50000        0.39230        0.00000
C          3.50000        0.39230        0.00000
C          2.75000        1.69134        0.00000
C          1.25000        1.69134        0.00000
C          0.50000        2.99038        0.00000
C          3.50000        2.99038        0.00000
C          2.75000        4.28942        0.00000
C          1.25000        4.28942        0.00000
C          0.50000        5.58846        0.00000
C          3.50000        5.58846        0.00000
C          2.75000        6.88750        0.00000
C          1.25000        6.88750        0.00000
C          0.50000        8.18653        0.00000
C         -1.00000        8.18653        0.00000
C          3.50000        8.18653        0.00000
C          2.75000        9.48557        0.00000
C          1.25000        9.48557        0.00000
C          5.00000       -7.40192        0.00000
C          5.75000       -6.10289        0.00000
C          5.00000       -4.80385        0.00000
C          7.25000       -6.10289        0.00000
C          8.00000       -4.80385        0.00000
C          7.25000       -3.50481        0.00000
C          5.75000       -3.50481        0.00000
C          5.00000       -2.20577        0.00000
C          8.00000       -2.20577        0.00000
C          7.25000       -0.90673        0.00000
C          5.75000       -0.90673        0.00000
C          5.00000        0.39230        0.00000
C          8.00000        0.39230        0.00000
C          7.25000        1.69134        0.00000
C          5.75000        1.69134        0.00000
C          5.00000        2.99038        0.00000
C          8.00000        2.99038        0.00000
C          7.25000        4.28942        0.00000
C          5.75000        4.28942        0.00000
C          5.00000        5.58846        0.00000
C          5.75000        6.88750        0.00000
C          5.00000        8.18653        0.00000
H         -8.05985       -6.63956        0.87596
H         -8.05985       -6.63956       -0.87596
H         -9.11970       -4.80385        0.87596
H         -9.11970       -4.80385       -0.87596
H         -9.11970       -2.20577        0.87596
H         -9.11970       -2.20577       -0.87596
H         -9.11970        0.39230        0.87596
H         -9.11970        0.39230       -0.87596
H         -8.05985        4.82610        0.87596
H         -8.05985        4.82610       -0.87596
H         -9.11970        2.99038        0.87596
H         -9.11970        2.99038       -0.87596
H         -3.55985       -9.23764        0.87596
H         -3.55985       -9.23764       -0.87596
H         -1.44015       -9.23764        0.87596
H         -1.44015       -9.23764       -0.87596
H         -5.80985       -7.93860        0.87596
H         -5.80985       -7.93860       -0.87596
H         -3.69015        8.72321        0.87596
H         -3.69015        8.72321       -0.87596
H         -5.80985        8.72321        0.87596
H         -5.80985        8.72321       -0.87596
H         -6.86970        6.88750        0.87596
H         -6.86970        6.88750       -0.87596
H          0.94015       -9.23764        0.87596
H          0.94015       -9.23764       -0.87596
H          3.05985       -9.23764        0.87596
H          3.05985       -9.23764       -0.87596
H         -1.30985        8.72321        0.87596
H         -1.30985        8.72321       -0.87596
H          3.05985       10.02225        0.87596
H          3.05985       10.02225       -0.87596
H          0.94015       10.02225        0.87596
H          0.94015       10.02225       -0.87596
H          5.30985       -7.93860        0.87596
H          5.30985       -7.93860       -0.87596
H          7.55985       -6.63956        0.87596
H          7.55985       -6.63956       -0.87596
H          8.61970       -4.80385        0.87596
H          8.61970       -4.80385       -0.87596
H          8.61970       -2.20577        0.87596
H          8.61970       -2.20577       -0.87596
H          8.61970        0.39230        0.87596
H          8.61970        0.39230       -0.87596
H          8.61970        2.99038        0.87596
H          8.61970        2.99038       -0.87596
H          7.55985        4.82610        0.87596
H          7.55985        4.82610       -0.87596
H          6.36970        6.88750        0.87596
H          6.36970        6.88750       -0.87596
H          5.30985        8.72321        0.87596
H          5.30985        8.72321       -0.87596

