%Mem=7000MW
%NProcShared=24
%Chk=5_D15A_a1.55.chk
#p test
rCAM-B3LYP/6-31G*
GFInp
opt(MaxCycle=150,NoRaman)
freq(NoRaman)
popul(Full)
scf(MaxCycle=150)

5_D15A_a1.55

0,1
C         -5.17500       -3.47298        0.00000
C         -3.62500       -3.47298        0.00000
C         -2.85000       -2.13064        0.00000
C         -3.62500       -0.78830        0.00000
C         -5.17500       -0.78830        0.00000
C         -5.95000       -2.13064        0.00000
C         -2.85000        0.55404        0.00000
C         -3.62500        1.89638        0.00000
C         -5.17500        1.89638        0.00000
C         -5.95000        0.55404        0.00000
C         -2.85000        3.23872        0.00000
C         -3.62500        4.58105        0.00000
C         -5.17500        4.58105        0.00000
C         -5.95000        3.23872        0.00000
C         -0.52500       -6.15766        0.00000
C          1.02500       -6.15766        0.00000
C          1.80000       -4.81532        0.00000
C          1.02500       -3.47298        0.00000
C         -0.52500       -3.47298        0.00000
C         -1.30000       -4.81532        0.00000
C         -2.85000       -4.81532        0.00000
C         -1.30000       -2.13064        0.00000
C          1.80000       -2.13064        0.00000
C          1.02500       -0.78830        0.00000
C         -0.52500       -0.78830        0.00000
C         -1.30000        0.55404        0.00000
C          1.80000        0.55404        0.00000
C          1.02500        1.89638        0.00000
C         -0.52500        1.89638        0.00000
C         -1.30000        3.23872        0.00000
C          1.80000        3.23872        0.00000
C          1.02500        4.58105        0.00000
C         -0.52500        4.58105        0.00000
C         -1.30000        5.92339        0.00000
C         -2.85000        5.92339        0.00000
C          1.80000        5.92339        0.00000
C          1.02500        7.26573        0.00000
C         -0.52500        7.26573        0.00000
C          3.35000       -4.81532        0.00000
C          4.12500       -3.47298        0.00000
C          3.35000       -2.13064        0.00000
C          5.67500       -3.47298        0.00000
C          6.45000       -2.13064        0.00000
C          5.67500       -0.78830        0.00000
C          4.12500       -0.78830        0.00000
C          3.35000        0.55404        0.00000
C          6.45000        0.55404        0.00000
C          5.67500        1.89638        0.00000
C          4.12500        1.89638        0.00000
C          3.35000        3.23872        0.00000
C          6.45000        3.23872        0.00000
C          5.67500        4.58105        0.00000
C          4.12500        4.58105        0.00000
C          3.35000        5.92339        0.00000
H         -5.48485       -4.00966        0.87596
H         -5.48485       -4.00966       -0.87596
H         -6.56970       -2.13064        0.87596
H         -6.56970       -2.13064       -0.87596
H         -6.56970        0.55404        0.87596
H         -6.56970        0.55404       -0.87596
H         -5.48485        5.11773        0.87596
H         -5.48485        5.11773       -0.87596
H         -6.56970        3.23872        0.87596
H         -6.56970        3.23872       -0.87596
H         -0.83485       -6.69434        0.87596
H         -0.83485       -6.69434       -0.87596
H          1.33485       -6.69434        0.87596
H          1.33485       -6.69434       -0.87596
H         -3.15985       -5.35200        0.87596
H         -3.15985       -5.35200       -0.87596
H         -3.15985        6.46007        0.87596
H         -3.15985        6.46007       -0.87596
H          1.33485        7.80241        0.87596
H          1.33485        7.80241       -0.87596
H         -0.83485        7.80241        0.87596
H         -0.83485        7.80241       -0.87596
H          3.65985       -5.35200        0.87596
H          3.65985       -5.35200       -0.87596
H          5.98485       -4.00966        0.87596
H          5.98485       -4.00966       -0.87596
H          7.06970       -2.13064        0.87596
H          7.06970       -2.13064       -0.87596
H          7.06970        0.55404        0.87596
H          7.06970        0.55404       -0.87596
H          7.06970        3.23872        0.87596
H          7.06970        3.23872       -0.87596
H          5.98485        5.11773        0.87596
H          5.98485        5.11773       -0.87596
H          3.65985        6.46007        0.87596
H          3.65985        6.46007       -0.87596

