%Mem=7000MW
%NProcShared=24
%Chk=2_D15A_a1.5.chk
#p test
rCAM-B3LYP/6-31G*
GFInp
opt(MaxCycle=150,NoRaman)
freq(NoRaman)
popul(Full)
scf(MaxCycle=150)

2_D15A_a1.5

0,1
C         -5.25000       -3.60289        0.00000
C         -3.75000       -3.60289        0.00000
C         -3.00000       -2.30385        0.00000
C         -3.75000       -1.00481        0.00000
C         -5.25000       -1.00481        0.00000
C         -6.00000       -2.30385        0.00000
C         -3.00000        0.29423        0.00000
C         -3.75000        1.59327        0.00000
C         -5.25000        1.59327        0.00000
C         -6.00000        0.29423        0.00000
C         -3.00000        2.89230        0.00000
C         -3.75000        4.19134        0.00000
C         -5.25000        4.19134        0.00000
C         -6.00000        2.89230        0.00000
C         -0.75000       -6.20096        0.00000
C          0.75000       -6.20096        0.00000
C          1.50000       -4.90192        0.00000
C          0.75000       -3.60289        0.00000
C         -0.75000       -3.60289        0.00000
C         -1.50000       -4.90192        0.00000
C         -3.00000       -4.90192        0.00000
C         -1.50000       -2.30385        0.00000
C          1.50000       -2.30385        0.00000
C          0.75000       -1.00481        0.00000
C         -0.75000       -1.00481        0.00000
C         -1.50000        0.29423        0.00000
C          1.50000        0.29423        0.00000
C          0.75000        1.59327        0.00000
C         -0.75000        1.59327        0.00000
C         -1.50000        2.89230        0.00000
C          1.50000        2.89230        0.00000
C          0.75000        4.19134        0.00000
C         -0.75000        4.19134        0.00000
C         -1.50000        5.49038        0.00000
C         -3.00000        5.49038        0.00000
C          1.50000        5.49038        0.00000
C          0.75000        6.78942        0.00000
C         -0.75000        6.78942        0.00000
C          3.00000       -4.90192        0.00000
C          3.75000       -3.60289        0.00000
C          3.00000       -2.30385        0.00000
C          5.25000       -3.60289        0.00000
C          6.00000       -2.30385        0.00000
C          5.25000       -1.00481        0.00000
C          3.75000       -1.00481        0.00000
C          3.00000        0.29423        0.00000
C          6.00000        0.29423        0.00000
C          5.25000        1.59327        0.00000
C          3.75000        1.59327        0.00000
C          3.00000        2.89230        0.00000
C          6.00000        2.89230        0.00000
C          5.25000        4.19134        0.00000
C          3.75000        4.19134        0.00000
C          3.00000        5.49038        0.00000
H         -5.55985       -4.13956        0.87596
H         -5.55985       -4.13956       -0.87596
H         -6.61970       -2.30385        0.87596
H         -6.61970       -2.30385       -0.87596
H         -6.61970        0.29423        0.87596
H         -6.61970        0.29423       -0.87596
H         -5.55985        4.72802        0.87596
H         -5.55985        4.72802       -0.87596
H         -6.61970        2.89230        0.87596
H         -6.61970        2.89230       -0.87596
H         -1.05985       -6.73764        0.87596
H         -1.05985       -6.73764       -0.87596
H          1.05985       -6.73764        0.87596
H          1.05985       -6.73764       -0.87596
H         -3.30985       -5.43860        0.87596
H         -3.30985       -5.43860       -0.87596
H         -3.30985        6.02706        0.87596
H         -3.30985        6.02706       -0.87596
H          1.05985        7.32610        0.87596
H          1.05985        7.32610       -0.87596
H         -1.05985        7.32610        0.87596
H         -1.05985        7.32610       -0.87596
H          3.30985       -5.43860        0.87596
H          3.30985       -5.43860       -0.87596
H          5.55985       -4.13956        0.87596
H          5.55985       -4.13956       -0.87596
H          6.61970       -2.30385        0.87596
H          6.61970       -2.30385       -0.87596
H          6.61970        0.29423        0.87596
H          6.61970        0.29423       -0.87596
H          6.61970        2.89230        0.87596
H          6.61970        2.89230       -0.87596
H          5.55985        4.72802        0.87596
H          5.55985        4.72802       -0.87596
H          3.30985        6.02706        0.87596
H          3.30985        6.02706       -0.87596

