%Mem=7000MW
%NProcShared=24
%Chk=1__D20__A_a1_55__l_ch1_08__angle_ch109_5.chk
#p test
rCAM-B3LYP/6-31G*
GFInp
opt(MaxCycle=150,NoRaman)
freq(NoRaman)
popul(Full)
scf(MaxCycle=150)

1__D20__A_a1_55__l_ch1_08__angle_ch109_5

0,1
C         -7.67500       -5.97298        0.00000
C         -6.12500       -5.97298        0.00000
C         -5.35000       -4.63064        0.00000
C         -6.12500       -3.28830        0.00000
C         -7.67500       -3.28830        0.00000
C         -8.45000       -4.63064        0.00000
C         -5.35000       -1.94596        0.00000
C         -6.12500       -0.60362        0.00000
C         -7.67500       -0.60362        0.00000
C         -8.45000       -1.94596        0.00000
C         -5.35000        0.73872        0.00000
C         -6.12500        2.08105        0.00000
C         -7.67500        2.08105        0.00000
C         -8.45000        0.73872        0.00000
C         -5.35000        3.42339        0.00000
C         -6.12500        4.76573        0.00000
C         -7.67500        4.76573        0.00000
C         -8.45000        3.42339        0.00000
C         -3.02500       -8.65766        0.00000
C         -1.47500       -8.65766        0.00000
C         -0.70000       -7.31532        0.00000
C         -1.47500       -5.97298        0.00000
C         -3.02500       -5.97298        0.00000
C         -3.80000       -7.31532        0.00000
C         -5.35000       -7.31532        0.00000
C         -3.80000       -4.63064        0.00000
C         -0.70000       -4.63064        0.00000
C         -1.47500       -3.28830        0.00000
C         -3.02500       -3.28830        0.00000
C         -3.80000       -1.94596        0.00000
C         -0.70000       -1.94596        0.00000
C         -1.47500       -0.60362        0.00000
C         -3.02500       -0.60362        0.00000
C         -3.80000        0.73872        0.00000
C         -0.70000        0.73872        0.00000
C         -1.47500        2.08105        0.00000
C         -3.02500        2.08105        0.00000
C         -3.80000        3.42339        0.00000
C         -0.70000        3.42339        0.00000
C         -1.47500        4.76573        0.00000
C         -3.02500        4.76573        0.00000
C         -3.80000        6.10807        0.00000
C         -5.35000        6.10807        0.00000
C         -0.70000        6.10807        0.00000
C         -1.47500        7.45041        0.00000
C         -3.02500        7.45041        0.00000
C          1.62500       -8.65766        0.00000
C          3.17500       -8.65766        0.00000
C          3.95000       -7.31532        0.00000
C          3.17500       -5.97298        0.00000
C          1.62500       -5.97298        0.00000
C          0.85000       -7.31532        0.00000
C          0.85000       -4.63064        0.00000
C          3.95000       -4.63064        0.00000
C          3.17500       -3.28830        0.00000
C          1.62500       -3.28830        0.00000
C          0.85000       -1.94596        0.00000
C          3.95000       -1.94596        0.00000
C          3.17500       -0.60362        0.00000
C          1.62500       -0.60362        0.00000
C          0.85000        0.73872        0.00000
C          3.95000        0.73872        0.00000
C          3.17500        2.08105        0.00000
C          1.62500        2.08105        0.00000
C          0.85000        3.42339        0.00000
C          3.95000        3.42339        0.00000
C          3.17500        4.76573        0.00000
C          1.62500        4.76573        0.00000
C          0.85000        6.10807        0.00000
C          3.95000        6.10807        0.00000
C          3.17500        7.45041        0.00000
C          1.62500        7.45041        0.00000
C          0.85000        8.79275        0.00000
C         -0.70000        8.79275        0.00000
C          5.50000       -7.31532        0.00000
C          6.27500       -5.97298        0.00000
C          5.50000       -4.63064        0.00000
C          7.82500       -5.97298        0.00000
C          8.60000       -4.63064        0.00000
C          7.82500       -3.28830        0.00000
C          6.27500       -3.28830        0.00000
C          5.50000       -1.94596        0.00000
C          8.60000       -1.94596        0.00000
C          7.82500       -0.60362        0.00000
C          6.27500       -0.60362        0.00000
C          5.50000        0.73872        0.00000
C          8.60000        0.73872        0.00000
C          7.82500        2.08105        0.00000
C          6.27500        2.08105        0.00000
C          5.50000        3.42339        0.00000
C          8.60000        3.42339        0.00000
C          7.82500        4.76573        0.00000
C          6.27500        4.76573        0.00000
C          5.50000        6.10807        0.00000
H         -7.98687       -6.51316        0.88167
H         -7.98687       -6.51316       -0.88167
H         -9.07374       -4.63064        0.88167
H         -9.07374       -4.63064       -0.88167
H         -9.07374       -1.94596        0.88167
H         -9.07374       -1.94596       -0.88167
H         -9.07374        0.73872        0.88167
H         -9.07374        0.73872       -0.88167
H         -7.98687        5.30591        0.88167
H         -7.98687        5.30591       -0.88167
H         -9.07374        3.42339        0.88167
H         -9.07374        3.42339       -0.88167
H         -3.33687       -9.19784        0.88167
H         -3.33687       -9.19784       -0.88167
H         -1.16313       -9.19784        0.88167
H         -1.16313       -9.19784       -0.88167
H         -5.66187       -7.85550        0.88167
H         -5.66187       -7.85550       -0.88167
H         -5.66187        6.64825        0.88167
H         -5.66187        6.64825       -0.88167
H         -3.33687        7.99059        0.88167
H         -3.33687        7.99059       -0.88167
H          1.31313       -9.19784        0.88167
H          1.31313       -9.19784       -0.88167
H          3.48687       -9.19784        0.88167
H          3.48687       -9.19784       -0.88167
H          3.48687        7.99059        0.88167
H          3.48687        7.99059       -0.88167
H          1.16187        9.33293        0.88167
H          1.16187        9.33293       -0.88167
H         -1.01187        9.33293        0.88167
H         -1.01187        9.33293       -0.88167
H          5.81187       -7.85550        0.88167
H          5.81187       -7.85550       -0.88167
H          8.13687       -6.51316        0.88167
H          8.13687       -6.51316       -0.88167
H          9.22374       -4.63064        0.88167
H          9.22374       -4.63064       -0.88167
H          9.22374       -1.94596        0.88167
H          9.22374       -1.94596       -0.88167
H          9.22374        0.73872        0.88167
H          9.22374        0.73872       -0.88167
H          9.22374        3.42339        0.88167
H          9.22374        3.42339       -0.88167
H          8.13687        5.30591        0.88167
H          8.13687        5.30591       -0.88167
H          5.81187        6.64825        0.88167
H          5.81187        6.64825       -0.88167

