%Mem=7000MW
%NProcShared=24
%Chk=4__D30__A_a1_55__l_ch1_09__angle_ch109_5.chk
#p test
rCAM-B3LYP/6-31G*
GFInp
opt(MaxCycle=150,NoRaman)
freq(NoRaman)
popul(Full)
scf(MaxCycle=150)

4__D30__A_a1_55__l_ch1_09__angle_ch109_5

0,1
C        -12.67500       -5.60362        0.00000
C        -11.12500       -5.60362        0.00000
C        -10.35000       -4.26128        0.00000
C        -11.12500       -2.91895        0.00000
C        -12.67500       -2.91895        0.00000
C        -13.45000       -4.26128        0.00000
C        -10.35000       -1.57661        0.00000
C        -11.12500       -0.23427        0.00000
C        -12.67500       -0.23427        0.00000
C        -13.45000       -1.57661        0.00000
C        -10.35000        1.10807        0.00000
C        -11.12500        2.45041        0.00000
C        -12.67500        2.45041        0.00000
C        -13.45000        1.10807        0.00000
C        -10.35000        3.79275        0.00000
C        -11.12500        5.13509        0.00000
C        -12.67500        5.13509        0.00000
C        -13.45000        3.79275        0.00000
C        -10.35000        6.47743        0.00000
C        -11.12500        7.81977        0.00000
C        -12.67500        7.81977        0.00000
C        -13.45000        6.47743        0.00000
C         -8.02500      -10.97298        0.00000
C         -6.47500      -10.97298        0.00000
C         -5.70000       -9.63064        0.00000
C         -6.47500       -8.28830        0.00000
C         -8.02500       -8.28830        0.00000
C         -8.80000       -9.63064        0.00000
C        -10.35000       -9.63064        0.00000
C         -8.80000       -6.94596        0.00000
C        -10.35000       -6.94596        0.00000
C        -11.12500       -8.28830        0.00000
C         -5.70000       -6.94596        0.00000
C         -6.47500       -5.60362        0.00000
C         -8.02500       -5.60362        0.00000
C         -8.80000       -4.26128        0.00000
C         -5.70000       -4.26128        0.00000
C         -6.47500       -2.91895        0.00000
C         -8.02500       -2.91895        0.00000
C         -8.80000       -1.57661        0.00000
C         -5.70000       -1.57661        0.00000
C         -6.47500       -0.23427        0.00000
C         -8.02500       -0.23427        0.00000
C         -8.80000        1.10807        0.00000
C         -5.70000        1.10807        0.00000
C         -6.47500        2.45041        0.00000
C         -8.02500        2.45041        0.00000
C         -8.80000        3.79275        0.00000
C         -5.70000        3.79275        0.00000
C         -6.47500        5.13509        0.00000
C         -8.02500        5.13509        0.00000
C         -8.80000        6.47743        0.00000
C         -5.70000        6.47743        0.00000
C         -6.47500        7.81977        0.00000
C         -8.02500        7.81977        0.00000
C         -8.80000        9.16211        0.00000
C        -10.35000        9.16211        0.00000
C         -5.70000        9.16211        0.00000
C         -6.47500       10.50445        0.00000
C         -8.02500       10.50445        0.00000
C         -3.37500      -13.65766        0.00000
C         -1.82500      -13.65766        0.00000
C         -1.05000      -12.31532        0.00000
C         -1.82500      -10.97298        0.00000
C         -3.37500      -10.97298        0.00000
C         -4.15000      -12.31532        0.00000
C         -5.70000      -12.31532        0.00000
C         -4.15000       -9.63064        0.00000
C         -1.05000       -9.63064        0.00000
C         -1.82500       -8.28830        0.00000
C         -3.37500       -8.28830        0.00000
C         -4.15000       -6.94596        0.00000
C         -1.05000       -6.94596        0.00000
C         -1.82500       -5.60362        0.00000
C         -3.37500       -5.60362        0.00000
C         -4.15000       -4.26128        0.00000
C         -1.05000       -4.26128        0.00000
C         -1.82500       -2.91895        0.00000
C         -3.37500       -2.91895        0.00000
C         -4.15000       -1.57661        0.00000
C         -1.05000       -1.57661        0.00000
C         -1.82500       -0.23427        0.00000
C         -3.37500       -0.23427        0.00000
C         -4.15000        1.10807        0.00000
C         -1.05000        1.10807        0.00000
C         -1.82500        2.45041        0.00000
C         -3.37500        2.45041        0.00000
C         -4.15000        3.79275        0.00000
C         -1.05000        3.79275        0.00000
C         -1.82500        5.13509        0.00000
C         -3.37500        5.13509        0.00000
C         -4.15000        6.47743        0.00000
C         -1.05000        6.47743        0.00000
C         -1.82500        7.81977        0.00000
C         -3.37500        7.81977        0.00000
C         -4.15000        9.16211        0.00000
C         -1.05000        9.16211        0.00000
C         -1.82500       10.50445        0.00000
C         -3.37500       10.50445        0.00000
C         -4.15000       11.84679        0.00000
C         -5.70000       11.84679        0.00000
C         -1.05000       11.84679        0.00000
C         -1.82500       13.18913        0.00000
C         -3.37500       13.18913        0.00000
C          1.27500      -13.65766        0.00000
C          2.82500      -13.65766        0.00000
C          3.60000      -12.31532        0.00000
C          2.82500      -10.97298        0.00000
C          1.27500      -10.97298        0.00000
C          0.50000      -12.31532        0.00000
C          0.50000       -9.63064        0.00000
C          3.60000       -9.63064        0.00000
C          2.82500       -8.28830        0.00000
C          1.27500       -8.28830        0.00000
C          0.50000       -6.94596        0.00000
C          3.60000       -6.94596        0.00000
C          2.82500       -5.60362        0.00000
C          1.27500       -5.60362        0.00000
C          0.50000       -4.26128        0.00000
C          3.60000       -4.26128        0.00000
C          2.82500       -2.91895        0.00000
C          1.27500       -2.91895        0.00000
C          0.50000       -1.57661        0.00000
C          3.60000       -1.57661        0.00000
C          2.82500       -0.23427        0.00000
C          1.27500       -0.23427        0.00000
C          0.50000        1.10807        0.00000
C          3.60000        1.10807        0.00000
C          2.82500        2.45041        0.00000
C          1.27500        2.45041        0.00000
C          0.50000        3.79275        0.00000
C          3.60000        3.79275        0.00000
C          2.82500        5.13509        0.00000
C          1.27500        5.13509        0.00000
C          0.50000        6.47743        0.00000
C          3.60000        6.47743        0.00000
C          2.82500        7.81977        0.00000
C          1.27500        7.81977        0.00000
C          0.50000        9.16211        0.00000
C          3.60000        9.16211        0.00000
C          2.82500       10.50445        0.00000
C          1.27500       10.50445        0.00000
C          0.50000       11.84679        0.00000
C          3.60000       11.84679        0.00000
C          2.82500       13.18913        0.00000
C          1.27500       13.18913        0.00000
C          0.50000       14.53147        0.00000
C         -1.05000       14.53147        0.00000
C          5.15000      -12.31532        0.00000
C          5.92500      -10.97298        0.00000
C          5.15000       -9.63064        0.00000
C          7.47500      -10.97298        0.00000
C          8.25000       -9.63064        0.00000
C          7.47500       -8.28830        0.00000
C          5.92500       -8.28830        0.00000
C          5.15000       -6.94596        0.00000
C          8.25000       -6.94596        0.00000
C          7.47500       -5.60362        0.00000
C          5.92500       -5.60362        0.00000
C          5.15000       -4.26128        0.00000
C          8.25000       -4.26128        0.00000
C          7.47500       -2.91895        0.00000
C          5.92500       -2.91895        0.00000
C          5.15000       -1.57661        0.00000
C          8.25000       -1.57661        0.00000
C          7.47500       -0.23427        0.00000
C          5.92500       -0.23427        0.00000
C          5.15000        1.10807        0.00000
C          8.25000        1.10807        0.00000
C          7.47500        2.45041        0.00000
C          5.92500        2.45041        0.00000
C          5.15000        3.79275        0.00000
C          8.25000        3.79275        0.00000
C          7.47500        5.13509        0.00000
C          5.92500        5.13509        0.00000
C          5.15000        6.47743        0.00000
C          8.25000        6.47743        0.00000
C          7.47500        7.81977        0.00000
C          5.92500        7.81977        0.00000
C          5.15000        9.16211        0.00000
C          8.25000        9.16211        0.00000
C          7.47500       10.50445        0.00000
C          5.92500       10.50445        0.00000
C          5.15000       11.84679        0.00000
C          9.80000       -9.63064        0.00000
C         10.57500       -8.28830        0.00000
C          9.80000       -6.94596        0.00000
C         12.12500       -8.28830        0.00000
C         12.90000       -6.94596        0.00000
C         12.12500       -5.60362        0.00000
C         10.57500       -5.60362        0.00000
C          9.80000       -4.26128        0.00000
C         12.90000       -4.26128        0.00000
C         12.12500       -2.91895        0.00000
C         10.57500       -2.91895        0.00000
C          9.80000       -1.57661        0.00000
C         12.90000       -1.57661        0.00000
C         12.12500       -0.23427        0.00000
C         10.57500       -0.23427        0.00000
C          9.80000        1.10807        0.00000
C         12.90000        1.10807        0.00000
C         12.12500        2.45041        0.00000
C         10.57500        2.45041        0.00000
C          9.80000        3.79275        0.00000
C         12.90000        3.79275        0.00000
C         12.12500        5.13509        0.00000
C         10.57500        5.13509        0.00000
C          9.80000        6.47743        0.00000
C         12.90000        6.47743        0.00000
C         12.12500        7.81977        0.00000
C         10.57500        7.81977        0.00000
C          9.80000        9.16211        0.00000
H        -12.98976       -6.14880        0.88983
H        -12.98976       -6.14880       -0.88983
H        -14.07952       -4.26128        0.88983
H        -14.07952       -4.26128       -0.88983
H        -14.07952       -1.57661        0.88983
H        -14.07952       -1.57661       -0.88983
H        -14.07952        1.10807        0.88983
H        -14.07952        1.10807       -0.88983
H        -14.07952        3.79275        0.88983
H        -14.07952        3.79275       -0.88983
H        -12.98976        8.36495        0.88983
H        -12.98976        8.36495       -0.88983
H        -14.07952        6.47743        0.88983
H        -14.07952        6.47743       -0.88983
H         -8.33976      -11.51816        0.88983
H         -8.33976      -11.51816       -0.88983
H        -10.66476      -10.17582        0.88983
H        -10.66476      -10.17582       -0.88983
H        -11.75452       -8.28830        0.88983
H        -11.75452       -8.28830       -0.88983
H        -10.66476        9.70729        0.88983
H        -10.66476        9.70729       -0.88983
H         -8.33976       11.04963        0.88983
H         -8.33976       11.04963       -0.88983
H         -3.68976      -14.20284        0.88983
H         -3.68976      -14.20284       -0.88983
H         -1.51024      -14.20284        0.88983
H         -1.51024      -14.20284       -0.88983
H         -6.01476      -12.86050        0.88983
H         -6.01476      -12.86050       -0.88983
H         -6.01476       12.39197        0.88983
H         -6.01476       12.39197       -0.88983
H         -3.68976       13.73431        0.88983
H         -3.68976       13.73431       -0.88983
H          0.96024      -14.20284        0.88983
H          0.96024      -14.20284       -0.88983
H          3.13976      -14.20284        0.88983
H          3.13976      -14.20284       -0.88983
H          3.13976       13.73431        0.88983
H          3.13976       13.73431       -0.88983
H          0.81476       15.07665        0.88983
H          0.81476       15.07665       -0.88983
H         -1.36476       15.07665        0.88983
H         -1.36476       15.07665       -0.88983
H          5.46476      -12.86050        0.88983
H          5.46476      -12.86050       -0.88983
H          7.78976      -11.51816        0.88983
H          7.78976      -11.51816       -0.88983
H          7.78976       11.04963        0.88983
H          7.78976       11.04963       -0.88983
H          5.46476       12.39197        0.88983
H          5.46476       12.39197       -0.88983
H         10.11476      -10.17582        0.88983
H         10.11476      -10.17582       -0.88983
H         12.43976       -8.83348        0.88983
H         12.43976       -8.83348       -0.88983
H         13.52952       -6.94596        0.88983
H         13.52952       -6.94596       -0.88983
H         13.52952       -4.26128        0.88983
H         13.52952       -4.26128       -0.88983
H         13.52952       -1.57661        0.88983
H         13.52952       -1.57661       -0.88983
H         13.52952        1.10807        0.88983
H         13.52952        1.10807       -0.88983
H         13.52952        3.79275        0.88983
H         13.52952        3.79275       -0.88983
H         13.52952        6.47743        0.88983
H         13.52952        6.47743       -0.88983
H         12.43976        8.36495        0.88983
H         12.43976        8.36495       -0.88983
H         10.11476        9.70729        0.88983
H         10.11476        9.70729       -0.88983

